LAMMPS (15 Apr 2020)
package omp 0
using multi-threaded neighbor list subroutines
echo both

# Define some variables
variable	temperature equal 1700.
variable	tempDamp equal 0.1 # approx 0.1 ps
variable	pressure equal 1.
variable	pressureDamp equal 1.0
variable	seed equal 74581

# Setup
units		metal
atom_style	full

# Initial configuration
# Cubic diamond lattice
lattice 	diamond 5.4307
Lattice spacing in x,y,z = 5.4307 5.4307 5.4307
region          myreg block 0 3 0 3 0 3
create_box      1 myreg
Created orthogonal box = (0 0 0) to (16.2921 16.2921 16.2921)
create_atoms    1 region myreg
Created 216 atoms
variable 	mass equal 28.0855
mass            1 28.0855

# More setup options
variable	out_freq equal 500
variable	out_freq2 equal 500
neigh_modify    delay 10 every 1
pair_style 	sw
pair_coeff 	* * Si.sw Si
Reading potential file Si.sw with DATE: 2007-06-11
timestep	0.002
thermo          500
thermo_style 	custom step temp pe press lx
restart 	500 Restart.lmp Restart2.lmp

# Perform minimization
minimize 1.0e-2 1.0e-3 100 1000
Last active /omp style is pair_style sw/omp
  update every 1 steps, delay 0 steps, check yes
Step Temp PotEng Press Lx
0            0   -936.70557    139.96968      16.2921
Loop time of 0.00197565 on 4 procs for 1 steps with 216 atoms

Minimization stats:
  Stopping criterion = energy tolerance
  Energy initial, next-to-last, final =
  Force two-norm initial, final = 2.41613e-13 1.82271e-13
  Force max component initial, final = 2.13921e-14 2.13682e-14
  Final line search alpha, max atom move = 1 2.13682e-14
  Iterations, force evaluations = 1 2

reset_timestep 	0

# NVT equilibration

fix             1 all nve
fix             2 all temp/csvr 1700 1700 0.1 74581

velocity        all create 1700 74581 dist gaussian
run             25000
Last active /omp style is pair_style sw/omp
Step Temp PotEng Press Lx
0         1700   -936.70557    11809.138      16.2921
Averages over the last 26 of 51 rows, steps 12500 to 25000:
Temp PotEng Press Lx
1711.56 -884.587 15368.1 16.2921
Loop time of 3.72367 on 4 procs for 25000 steps with 216 atoms

unfix           1
unfix           2

# NPT equilibration
# The symmetry of the crystal structure allows us to use an isotropic barostat

fix             1 all nph iso 1 1 1
fix             2 all temp/csvr 1700 1700 0.1 74581

velocity        all create 1700 74581 dist gaussian
run             25000
Last active /omp style is pair_style sw/omp
Step Temp PotEng Press Lx
25000         1700   -882.06959    16136.218      16.2921
Averages over the last 26 of 51 rows, steps 37500 to 50000:
Temp PotEng Press Lx
1675.8 -883.507 -554.915 16.3838
Loop time of 3.64685 on 4 procs for 25000 steps with 216 atoms

unfix           1
unfix           2

# Dump trajectories in dump and dcd format
dump            myDump all atom 500 si.lammps-dump-text
dump            myDcdDump all dcd 500 out.dcd

# NPT + enhanced sampling

reset_timestep  0

fix             1 all nph iso 1 1 1
fix             2 all temp/csvr 1700 1700 0.1 74581
fix		3 all momentum 10000 linear 1 1 1 angular

run             100000
Last active /omp style is pair_style sw/omp
Step Temp PotEng Press Lx
0    1712.5551   -884.34029   -2920.3433    16.404556
Averages over the last 101 of 201 rows, steps 50000 to 100000:
Temp PotEng Press Lx
1705.29 -884.329 -6.66016 16.3839
Loop time of 14.6949 on 4 procs for 100000 steps with 216 atoms

unfix		3
unfix		2
unfix		1

write_data	data.final
Last active /omp style is pair_style sw/omp
