LAMMPS (15 Apr 2020)
package omp 0
using multi-threaded neighbor list subroutines
echo both

# Define some variables
variable	temperature equal 1700.
variable	temperature2 equal 2500.
variable	tempDamp equal 0.1 # approx 0.1 ps
variable	pressure equal 1.
variable	pressureDamp equal 1.0
variable	seed equal 74581

# Setup
units		metal
atom_style	full

# Initial configuration
# Cubic diamond lattice
lattice 	diamond 5.4307
Lattice spacing in x,y,z = 5.4307 5.4307 5.4307
region          myreg block 0 3 0 3 0 3
create_box      1 myreg
Created orthogonal box = (0 0 0) to (16.2921 16.2921 16.2921)
create_atoms    1 region myreg
Created 216 atoms
variable 	mass equal 28.0855
mass            1 28.0855

# More setup options
variable	out_freq equal 500
variable	out_freq2 equal 500
neigh_modify    delay 10 every 1
pair_style 	sw
pair_coeff 	* * Si.sw Si
Reading potential file Si.sw with DATE: 2007-06-11
timestep	0.002
thermo          500
thermo_style 	custom step temp pe press lx
restart 	500 Restart.lmp Restart2.lmp

# Perform minimization
minimize 1.0e-2 1.0e-3 100 1000
Last active /omp style is pair_style sw/omp
  update every 1 steps, delay 0 steps, check yes
Step Temp PotEng Press Lx
0            0   -936.70557    139.96968      16.2921
Loop time of 0.00221568 on 4 procs for 1 steps with 216 atoms

Minimization stats:
  Stopping criterion = energy tolerance
  Energy initial, next-to-last, final =
  Force two-norm initial, final = 2.41613e-13 1.82271e-13
  Force max component initial, final = 2.13921e-14 2.13682e-14
  Final line search alpha, max atom move = 1 2.13682e-14
  Iterations, force evaluations = 1 2

reset_timestep 	0

# NVT equilibration

fix             1 all nve
fix             2 all temp/csvr 2500 2500 0.1 74581

velocity        all create 2500 74581 dist gaussian
run             50000
Last active /omp style is pair_style sw/omp
Step Temp PotEng Press Lx
0         2500   -936.70557    17300.512      16.2921
Averages over the last 51 of 101 rows, steps 25000 to 50000:
Temp PotEng Press Lx
2491.35 -777.213 -23625.9 16.2921
Loop time of 10.4894 on 4 procs for 50000 steps with 216 atoms

unfix           1
unfix           2

# NPT equilibration

fix             1 all nph iso 1 1 1
fix             2 all temp/csvr 2500 2500 0.1 74581

velocity        all create 2500 74581 dist gaussian
run             50000
Last active /omp style is pair_style sw/omp
Step Temp PotEng Press Lx
50000         2500   -772.92681   -11800.468      16.2921
Averages over the last 51 of 101 rows, steps 75000 to 100000:
Temp PotEng Press Lx
2473.66 -783.431 -3333.2 16.1208
Loop time of 12.0777 on 4 procs for 50000 steps with 216 atoms

unfix           1
unfix           2

# NPT equilibration
# The symmetry of the crystal structure allows us to use an isotropic barostat

fix             1 all nph iso 1 1 1
fix             2 all temp/csvr 2500 1700 0.1 74581

run             500000
Last active /omp style is pair_style sw/omp
Step Temp PotEng Press Lx
100000    2453.9376   -784.14297   -12344.414    16.143457
Averages over the last 501 of 1001 rows, steps 350000 to 600000:
Temp PotEng Press Lx
1906.06 -806.441 -536.671 16.0038
Loop time of 122.733 on 4 procs for 500000 steps with 216 atoms

unfix           1
unfix           2

# Dump trajectories in dump and dcd format
dump            myDump all atom 500 si.lammps-dump-text
dump            myDcdDump all dcd 500 out.dcd

# NPT + enhanced sampling

reset_timestep  0

fix             1 all nph iso 1 1 1
fix             2 all temp/csvr 1700 1700 0.1 74581
fix		3 all momentum 10000 linear 1 1 1 angular

run             100000
Last active /omp style is pair_style sw/omp
Step Temp PotEng Press Lx
0    1627.3662   -812.77468    4381.7593    15.991467
Averages over the last 101 of 201 rows, steps 50000 to 100000:
Temp PotEng Press Lx
1701.84 -813.966 1353.58 15.9816
Loop time of 24.68 on 4 procs for 100000 steps with 216 atoms

unfix		3
unfix		2
unfix		1

write_data	data.final
Last active /omp style is pair_style sw/omp
